
Circuit: 

Doing analysis at TEMP = 27.000000 and TNOM = 27.000000

Warning: vtrans: no DC value, transient time 0 value used

Initial Transient Solution
--------------------------

Node                                   Voltage
----                                   -------
1                                      12.8686
2                                    -0.660784
3                                      12.2078
4                                      10.9372
5                                      10.2939
6                                      9.65049
7                                      9.00713
8                                      8.36376
9                                      7.72039
10                                     7.07703
11                                     6.43366
12                                     5.79029
13                                     5.14693
14                                     4.50356
15                                      3.8602
16                                     3.21683
17                                     2.57346
18                                      1.9301
19                                     1.28673
20                                    0.643366
vtrans#branch                       -0.0012457



No. of Data Rows : 13342
v_avg               =  1.079765e+01 from=  0.000000e+00 to=  1.000092e-01
v_max               =  1.093722e+01 at=  0.000000e+00
v_min               =  1.064393e+01 at=  7.881420e-02
v_avg = 1.079765e+01
v_max-v_min = 2.932900e-01
ERROR: (internal)  This operation is not defined for display type printf.
Can't open viewport for graphics.

The file "v_3.eps" may be printed on a postscript printer.
ERROR: (internal)  This operation is not defined for display type printf.
Can't open viewport for graphics.

The file "v_4.eps" may be printed on a postscript printer.
ERROR: (internal)  This operation is not defined for display type printf.
Can't open viewport for graphics.

The file "delta_v.eps" may be printed on a postscript printer.
